
  ACD/LABS03062412043D

 39 40  0  0  0  0  0  0  0  0  1 V2000
   19.4900  -10.2622   -2.4074 C   0  0  0  0  0  0  0  0  0  0  0  0
   20.1074  -11.5022   -2.4653 C   0  0  0  0  0  0  0  0  0  0  0  0
   18.1549  -10.1428   -2.7663 C   0  0  0  0  0  0  0  0  0  0  0  0
   19.3948  -12.6168   -2.8786 C   0  0  0  0  0  0  0  0  0  0  0  0
   17.4430  -11.2558   -3.1863 C   0  0  0  0  0  0  0  0  0  0  0  0
   18.0629  -12.4946   -3.2386 C   0  0  0  0  0  0  0  0  0  0  0  0
   20.2708   -9.0815   -1.9627 C   0  0  0  0  0  0  0  0  0  0  0  0
   19.7074   -7.8122   -1.9498 C   0  0  0  0  0  0  0  0  0  0  0  0
   21.5860   -9.2496   -1.5541 C   0  0  0  0  0  0  0  0  0  0  0  0
   20.4498   -6.7157   -1.5331 C   0  0  0  0  0  0  0  0  0  0  0  0
   22.3330   -8.1612   -1.1411 C   0  0  0  0  0  0  0  0  0  0  0  0
   21.7647   -6.8991   -1.1331 C   0  0  0  0  0  0  0  0  0  0  0  0
   16.1374  -11.1361   -3.5459 O   0  0  0  0  0  0  0  0  0  0  0  0
   19.7930   -5.3341   -1.5329 C   0  0  0  0  0  0  0  0  0  0  0  0
   20.5257   -4.1627   -0.8687 C   0  0  0  0  0  0  0  0  0  0  0  0
   21.7510   -4.3516    0.0000 C   0  0  0  0  0  0  0  0  0  0  0  0
   23.0073   -4.0358   -0.8176 C   0  0  0  0  0  0  0  0  0  0  0  0
   20.1085   -3.0409   -1.0430 O   0  0  0  0  0  0  0  0  0  0  0  0
   17.5571   -8.9581   -2.7130 F   0  0  0  0  0  0  0  0  0  0  0  0
   21.4680  -11.6074   -2.0934 N   0  0  0  0  0  0  0  0  0  0  0  0
   22.1936  -12.8866   -2.1163 C   0  0  0  0  0  0  0  0  0  0  0  0
   19.8918  -13.6095   -2.9213 H   0  0  0  0  0  0  0  0  0  0  0  0
   17.4926  -13.3890   -3.5689 H   0  0  0  0  0  0  0  0  0  0  0  0
   18.6544   -7.6730   -2.2753 H   0  0  0  0  0  0  0  0  0  0  0  0
   22.0438  -10.2619   -1.5577 H   0  0  0  0  0  0  0  0  0  0  0  0
   23.3864   -8.3004   -0.8166 H   0  0  0  0  0  0  0  0  0  0  0  0
   22.3685   -6.0268   -0.8031 H   0  0  0  0  0  0  0  0  0  0  0  0
   15.6198  -11.9504   -3.8511 H   0  0  0  0  0  0  0  0  0  0  0  0
   19.6255   -5.0543   -2.5949 H   0  0  0  0  0  0  0  0  0  0  0  0
   18.8140   -5.4405   -1.0185 H   0  0  0  0  0  0  0  0  0  0  0  0
   21.6900   -3.6673    0.8731 H   0  0  0  0  0  0  0  0  0  0  0  0
   21.7895   -5.4036    0.3552 H   0  0  0  0  0  0  0  0  0  0  0  0
   22.7683   -4.0958   -1.9010 H   0  0  0  0  0  0  0  0  0  0  0  0
   23.3602   -3.0111   -0.5726 H   0  0  0  0  0  0  0  0  0  0  0  0
   23.8029   -4.7717   -0.5726 H   0  0  0  0  0  0  0  0  0  0  0  0
   21.9489  -10.7184   -1.7945 H   0  0  0  0  0  0  0  0  0  0  0  0
   22.3680  -13.1941   -3.1697 H   0  0  0  0  0  0  0  0  0  0  0  0
   23.1696  -12.7676   -1.5989 H   0  0  0  0  0  0  0  0  0  0  0  0
   21.5905  -13.6632   -1.5989 H   0  0  0  0  0  0  0  0  0  0  0  0
  1  2  1  0  0  0  0
  1  3  2  0  0  0  0
  2  4  2  0  0  0  0
  3  5  1  0  0  0  0
  4  6  1  0  0  0  0
  5  6  2  0  0  0  0
  7  8  1  0  0  0  0
  7  9  2  0  0  0  0
  8 10  2  0  0  0  0
  9 11  1  0  0  0  0
 10 12  1  0  0  0  0
 11 12  2  0  0  0  0
  1  7  1  0  0  0  0
  5 13  1  0  0  0  0
 10 14  1  0  0  0  0
 14 15  1  0  0  0  0
 15 16  1  0  0  0  0
 16 17  1  0  0  0  0
 15 18  2  0  0  0  0
  3 19  1  0  0  0  0
  2 20  1  0  0  0  0
 20 21  1  0  0  0  0
 22  4  1  0  0  0  0
 23  6  1  0  0  0  0
 24  8  1  0  0  0  0
 25  9  1  0  0  0  0
 26 11  1  0  0  0  0
 27 12  1  0  0  0  0
 28 13  1  0  0  0  0
 29 14  1  0  0  0  0
 30 14  1  0  0  0  0
 31 16  1  0  0  0  0
 32 16  1  0  0  0  0
 33 17  1  0  0  0  0
 34 17  1  0  0  0  0
 35 17  1  0  0  0  0
 36 20  1  0  0  0  0
 37 21  1  0  0  0  0
 38 21  1  0  0  0  0
 39 21  1  0  0  0  0
M  END
