
  ACD/LABS03062412043D

 54 56  0  0  0  0  0  0  0  0  1 V2000
   20.7018   -8.3519   -2.8817 C   0  0  0  0  0  0  0  0  0  0  0  0
   22.0706   -8.1440   -2.7524 C   0  0  0  0  0  0  0  0  0  0  0  0
   20.2457   -9.5089   -3.4966 C   0  0  0  0  0  0  0  0  0  0  0  0
   22.9575   -9.0910   -3.2437 C   0  0  0  0  0  0  0  0  0  0  0  0
   21.1365  -10.4503   -3.9845 C   0  0  0  0  0  0  0  0  0  0  0  0
   22.4967  -10.2409   -3.8593 C   0  0  0  0  0  0  0  0  0  0  0  0
   19.7011   -7.3786   -2.3672 C   0  0  0  0  0  0  0  0  0  0  0  0
   18.3562   -7.6891   -2.4856 C   0  0  0  0  0  0  0  0  0  0  0  0
   20.0720   -6.1798   -1.7757 C   0  0  0  0  0  0  0  0  0  0  0  0
   17.3794   -6.8255   -2.0234 C   0  0  0  0  0  0  0  0  0  0  0  0
   19.0981   -5.3053   -1.3130 C   0  0  0  0  0  0  0  0  0  0  0  0
   17.7529   -5.6247   -1.4367 C   0  0  0  0  0  0  0  0  0  0  0  0
   20.5477  -11.9082   -4.7531 S   0  0  0  0  0  0  0  0  0  0  0  0
   16.0267   -7.2184   -2.1709 N   0  0  0  0  0  0  0  0  0  0  0  0
   14.8672   -6.5335   -1.8488 C   0  0  0  0  0  0  0  0  0  0  0  0
   14.8818   -5.1224   -1.3175 C   0  0  0  0  0  0  0  0  0  0  0  0
   13.6397   -4.4180   -1.8707 C   0  0  0  0  0  0  0  0  0  0  0  0
   13.8022   -7.0846   -2.0096 O   0  0  0  0  0  0  0  0  0  0  0  0
   18.9393   -9.7136   -3.6154 F   0  0  0  0  0  0  0  0  0  0  0  0
   22.5603   -6.9794   -2.1159 N   0  0  0  0  0  0  0  0  0  0  0  0
   22.8673   -5.8010   -2.9452 C   0  0  0  0  0  0  0  0  0  0  0  0
   16.3536   -4.2885   -1.8384 Cl  0  0  0  0  0  0  0  0  0  0  0  0
   12.2021   -5.3977   -1.5337 Cl  0  0  0  0  0  0  0  0  0  0  0  0
   23.5758   -7.0764   -1.0472 C   0  0  0  0  0  0  0  0  0  0  0  0
   25.0564   -7.0345   -1.4784 C   0  0  0  0  0  0  0  0  0  0  0  0
   25.8868   -7.1724   -0.1952 C   0  0  0  0  0  0  0  0  0  0  0  0
   25.4635   -8.2748   -2.2706 C   0  0  0  0  0  0  0  0  0  0  0  0
   26.1295   -8.6817    0.0000 C   0  0  0  0  0  0  0  0  0  0  0  0
   25.4989   -9.3708   -1.2126 C   0  0  0  0  0  0  0  0  0  0  0  0
   24.0516   -8.9264   -3.1429 H   0  0  0  0  0  0  0  0  0  0  0  0
   23.2152  -10.9922   -4.2509 H   0  0  0  0  0  0  0  0  0  0  0  0
   18.0556   -8.6479   -2.9597 H   0  0  0  0  0  0  0  0  0  0  0  0
   21.1474   -5.9205   -1.6727 H   0  0  0  0  0  0  0  0  0  0  0  0
   19.3968   -4.3448   -0.8411 H   0  0  0  0  0  0  0  0  0  0  0  0
   16.9769   -4.9207   -1.0671 H   0  0  0  0  0  0  0  0  0  0  0  0
   21.4655  -12.8706   -5.2452 H   0  0  0  0  0  0  0  0  0  0  0  0
   15.8558   -8.1719   -2.5863 H   0  0  0  0  0  0  0  0  0  0  0  0
   14.7348   -5.2094   -0.2197 H   0  0  0  0  0  0  0  0  0  0  0  0
   13.5970   -3.4233   -1.3776 H   0  0  0  0  0  0  0  0  0  0  0  0
   13.8132   -4.2848   -2.9600 H   0  0  0  0  0  0  0  0  0  0  0  0
   22.7957   -6.0757   -4.0194 H   0  0  0  0  0  0  0  0  0  0  0  0
   22.1403   -4.9912   -2.7209 H   0  0  0  0  0  0  0  0  0  0  0  0
   23.8970   -5.4489   -2.7209 H   0  0  0  0  0  0  0  0  0  0  0  0
   23.3854   -6.2295   -0.3538 H   0  0  0  0  0  0  0  0  0  0  0  0
   23.3880   -8.0364   -0.5204 H   0  0  0  0  0  0  0  0  0  0  0  0
   25.2143   -6.1123   -2.0774 H   0  0  0  0  0  0  0  0  0  0  0  0
   26.8538   -6.6365   -0.3048 H   0  0  0  0  0  0  0  0  0  0  0  0
   25.3279   -6.7558    0.6699 H   0  0  0  0  0  0  0  0  0  0  0  0
   24.7157   -8.5075   -3.0586 H   0  0  0  0  0  0  0  0  0  0  0  0
   26.4631   -8.1398   -2.7362 H   0  0  0  0  0  0  0  0  0  0  0  0
   27.2185   -8.8977    0.0406 H   0  0  0  0  0  0  0  0  0  0  0  0
   25.6463   -9.0347    0.9361 H   0  0  0  0  0  0  0  0  0  0  0  0
   24.4730   -9.7272   -0.9788 H   0  0  0  0  0  0  0  0  0  0  0  0
   26.1207  -10.2269   -1.5516 H   0  0  0  0  0  0  0  0  0  0  0  0
  1  2  1  0  0  0  0
  1  3  2  0  0  0  0
  2  4  2  0  0  0  0
  3  5  1  0  0  0  0
  4  6  1  0  0  0  0
  5  6  2  0  0  0  0
  7  8  1  0  0  0  0
  7  9  2  0  0  0  0
  8 10  2  0  0  0  0
  9 11  1  0  0  0  0
 10 12  1  0  0  0  0
 11 12  2  0  0  0  0
  1  7  1  0  0  0  0
  5 13  1  0  0  0  0
 10 14  1  0  0  0  0
 14 15  1  0  0  0  0
 15 16  1  0  0  0  0
 16 17  1  0  0  0  0
 15 18  2  0  0  0  0
  3 19  1  0  0  0  0
  2 20  1  0  0  0  0
 20 21  1  0  0  0  0
 16 22  1  0  0  0  0
 17 23  1  0  0  0  0
 20 24  1  0  0  0  0
 25 26  1  0  0  0  0
 25 27  1  0  0  0  0
 26 28  1  0  0  0  0
 27 29  1  0  0  0  0
 28 29  1  0  0  0  0
 24 25  1  0  0  0  0
 30  4  1  0  0  0  0
 31  6  1  0  0  0  0
 32  8  1  0  0  0  0
 33  9  1  0  0  0  0
 34 11  1  0  0  0  0
 35 12  1  0  0  0  0
 36 13  1  0  0  0  0
 37 14  1  0  0  0  0
 38 16  1  0  0  0  0
 39 17  1  0  0  0  0
 40 17  1  0  0  0  0
 41 21  1  0  0  0  0
 42 21  1  0  0  0  0
 43 21  1  0  0  0  0
 44 24  1  0  0  0  0
 45 24  1  0  0  0  0
 46 25  1  0  0  0  0
 47 26  1  0  0  0  0
 48 26  1  0  0  0  0
 49 27  1  0  0  0  0
 50 27  1  0  0  0  0
 51 28  1  0  0  0  0
 52 28  1  0  0  0  0
 53 29  1  0  0  0  0
 54 29  1  0  0  0  0
M  END
