
  ACD/LABS03062408523D

 34 35  0  0  0  0  0  0  0  0  1 V2000
   18.2919   -9.1185   -1.2759 C   0  0  0  0  0  0  0  0  0  0  0  0
   18.1834  -10.1633   -2.1816 C   0  0  0  0  0  0  0  0  0  0  0  0
   17.1837   -8.7200   -0.5448 C   0  0  0  0  0  0  0  0  0  0  0  0
   16.9688  -10.8080   -2.3547 C   0  0  0  0  0  0  0  0  0  0  0  0
   15.9693   -9.3641   -0.7179 C   0  0  0  0  0  0  0  0  0  0  0  0
   15.8618  -10.4082   -1.6229 C   0  0  0  0  0  0  0  0  0  0  0  0
   19.5806   -8.4321   -1.0864 C   0  0  0  0  0  0  0  0  0  0  0  0
   19.6636   -7.0563   -1.2352 C   0  0  0  0  0  0  0  0  0  0  0  0
   20.7112   -9.1617   -0.7546 C   0  0  0  0  0  0  0  0  0  0  0  0
   20.8737   -6.4065   -1.0528 C   0  0  0  0  0  0  0  0  0  0  0  0
   21.9227   -8.5157   -0.5727 C   0  0  0  0  0  0  0  0  0  0  0  0
   22.0036   -7.1405   -0.7205 C   0  0  0  0  0  0  0  0  0  0  0  0
   14.8833   -8.9700    0.0000 O   0  0  0  0  0  0  0  0  0  0  0  0
   20.9355   -4.8965   -1.2154 C   0  0  0  0  0  0  0  0  0  0  0  0
   22.3368   -4.3941   -1.4961 C   0  0  0  0  0  0  0  0  0  0  0  0
   23.3229   -4.2403   -0.3618 C   0  0  0  0  0  0  0  0  0  0  0  0
   24.6158   -4.9817   -0.7071 C   0  0  0  0  0  0  0  0  0  0  0  0
   22.6562   -4.0822   -2.6213 O   0  0  0  0  0  0  0  0  0  0  0  0
   19.0702  -10.4840   -2.7690 H   0  0  0  0  0  0  0  0  0  0  0  0
   17.2691   -7.8831    0.1810 H   0  0  0  0  0  0  0  0  0  0  0  0
   16.8826  -11.6452   -3.0799 H   0  0  0  0  0  0  0  0  0  0  0  0
   14.8880  -10.9247   -1.7618 H   0  0  0  0  0  0  0  0  0  0  0  0
   18.7568   -6.4723   -1.5018 H   0  0  0  0  0  0  0  0  0  0  0  0
   20.6464  -10.2643   -0.6345 H   0  0  0  0  0  0  0  0  0  0  0  0
   22.8295   -9.1005   -0.3082 H   0  0  0  0  0  0  0  0  0  0  0  0
   22.9767   -6.6253   -0.5722 H   0  0  0  0  0  0  0  0  0  0  0  0
   13.9957   -9.4392   -0.1264 H   0  0  0  0  0  0  0  0  0  0  0  0
   20.2782   -4.6020   -2.0613 H   0  0  0  0  0  0  0  0  0  0  0  0
   20.5705   -4.4220   -0.2795 H   0  0  0  0  0  0  0  0  0  0  0  0
   23.5389   -3.1613   -0.2088 H   0  0  0  0  0  0  0  0  0  0  0  0
   22.8830   -4.6656    0.5654 H   0  0  0  0  0  0  0  0  0  0  0  0
   24.7234   -5.0434   -1.8112 H   0  0  0  0  0  0  0  0  0  0  0  0
   25.4824   -4.4323   -0.2808 H   0  0  0  0  0  0  0  0  0  0  0  0
   24.5793   -6.0071   -0.2808 H   0  0  0  0  0  0  0  0  0  0  0  0
  1  2  1  0  0  0  0
  1  3  2  0  0  0  0
  2  4  2  0  0  0  0
  3  5  1  0  0  0  0
  4  6  1  0  0  0  0
  5  6  2  0  0  0  0
  7  8  1  0  0  0  0
  7  9  2  0  0  0  0
  8 10  2  0  0  0  0
  9 11  1  0  0  0  0
 10 12  1  0  0  0  0
 11 12  2  0  0  0  0
  1  7  1  0  0  0  0
  5 13  1  0  0  0  0
 10 14  1  0  0  0  0
 14 15  1  0  0  0  0
 15 16  1  0  0  0  0
 16 17  1  0  0  0  0
 15 18  2  0  0  0  0
 19  2  1  0  0  0  0
 20  3  1  0  0  0  0
 21  4  1  0  0  0  0
 22  6  1  0  0  0  0
 23  8  1  0  0  0  0
 24  9  1  0  0  0  0
 25 11  1  0  0  0  0
 26 12  1  0  0  0  0
 27 13  1  0  0  0  0
 28 14  1  0  0  0  0
 29 14  1  0  0  0  0
 30 16  1  0  0  0  0
 31 16  1  0  0  0  0
 32 17  1  0  0  0  0
 33 17  1  0  0  0  0
 34 17  1  0  0  0  0
M  END
